Version 4
SHEET 1 880 680
WIRE 160 32 80 32
WIRE 160 112 160 32
WIRE 256 144 256 112
WIRE 384 144 256 144
WIRE 160 176 96 176
WIRE 256 176 256 144
WIRE 96 192 96 176
FLAG 80 112 0
FLAG 96 272 0
FLAG 384 144 Out
IOPIN 384 144 Out
SYMBOL memristor 208 112 R90
SYMATTR InstName U1
SYMBOL memristor 208 176 R90
SYMATTR InstName U2
SYMBOL voltage 80 16 R0
WINDOW 3 -196 -15 Left 2
WINDOW 123 0 0 Left 0
WINDOW 39 0 0 Left 0
SYMATTR Value PULSE(0 5 10m 1n 1n 10m 20m)
SYMATTR InstName V1
SYMBOL voltage 96 176 R0
WINDOW 123 0 0 Left 0
WINDOW 39 0 0 Left 0
WINDOW 3 -220 128 Left 2
SYMATTR Value PULSE(0 5 20m 1n 1n 20m 40m)
SYMATTR InstName V2
TEXT -232 296 Left 2 !.tran 100m
