Version 4
SHEET 1 1384 680
WIRE 1216 -128 1104 -128
WIRE 912 -80 784 -80
WIRE 1056 -48 1024 -48
WIRE 1008 16 1008 -80
WIRE 1024 16 1024 -48
WIRE 1024 16 1008 16
WIRE 1104 16 1104 -32
WIRE 1152 16 1104 16
WIRE 896 48 784 48
WIRE 1008 48 1008 16
WIRE 1008 48 992 48
WIRE 1104 48 1104 16
WIRE 1024 128 1024 16
WIRE 1056 128 1024 128
FLAG 1104 144 0
FLAG 784 0 0
FLAG 784 128 0
FLAG 1216 -48 0
FLAG 1152 16 Out
IOPIN 1152 16 Out
SYMBOL memristor 960 -80 R270
SYMATTR InstName U1
SYMBOL memristor 944 48 R270
SYMATTR InstName U2
SYMBOL nmos 1056 48 R0
WINDOW 0 270 -26 Left 2
WINDOW 3 253 1 Left 2
SYMATTR InstName M1
SYMBOL pmos 1056 -128 R0
WINDOW 0 263 4 Left 2
WINDOW 3 251 131 Left 2
SYMATTR InstName M2
SYMBOL voltage 1216 -144 R0
WINDOW 0 117 69 Left 2
WINDOW 3 118 96 Left 2
WINDOW 123 0 0 Left 0
WINDOW 39 0 0 Left 0
SYMATTR InstName A
SYMATTR Value 5
SYMBOL voltage 784 -96 R0
WINDOW 0 535 -2 Left 2
WINDOW 3 -138 -42 Left 2
WINDOW 123 0 0 Left 0
WINDOW 39 0 0 Left 0
SYMATTR InstName V2
SYMATTR Value PULSE(0 1.2 10m 1n 1n 10m 20m)
SYMBOL voltage 784 32 R0
WINDOW 0 544 -55 Left 2
WINDOW 3 -209 127 Left 2
WINDOW 123 0 0 Left 0
WINDOW 39 0 0 Left 0
SYMATTR InstName V3
SYMATTR Value PULSE(0 1.2 20m 1n 1n 20m 40m)
TEXT 576 184 Left 2 !.tran 10
