Version 4
SHEET 1 880 680
WIRE 496 32 400 32
WIRE 400 64 400 32
WIRE 160 80 32 80
WIRE 160 96 160 80
WIRE 192 96 160 96
WIRE 400 176 400 160
WIRE 448 176 400 176
WIRE 288 192 288 96
WIRE 352 192 352 144
WIRE 352 192 288 192
WIRE 192 208 32 208
WIRE 288 208 288 192
WIRE 32 224 32 208
WIRE 352 256 352 192
FLAG 32 160 0
FLAG 32 304 0
FLAG 400 272 0
FLAG 496 112 0
FLAG 448 176 Out
IOPIN 448 176 Out
SYMBOL voltage 32 64 R0
WINDOW 3 -155 -21 Left 2
WINDOW 123 0 0 Left 0
WINDOW 39 0 0 Left 0
SYMATTR InstName V1
SYMATTR Value PULSE(0 5 10m 1n 1n 10m 20m)
SYMBOL voltage 32 208 R0
WINDOW 3 -149 128 Left 2
SYMATTR InstName V2
SYMATTR Value PULSE(0 5 20m 1n 1n 20m 40m)
SYMBOL memristor 240 96 R90
SYMATTR InstName U1
SYMBOL memristor 240 208 R90
SYMATTR InstName U2
SYMBOL nmos 352 176 R0
SYMATTR InstName M1
SYMBOL pmos 352 64 R0
SYMATTR InstName M2
SYMBOL voltage 496 16 R0
WINDOW 123 0 0 Left 0
WINDOW 39 0 0 Left 0
SYMATTR InstName V3
SYMATTR Value 5
TEXT -124 356 Left 2 !.tran 5
