Version 4
SHEET 1 880 680
WIRE -16 32 -112 32
WIRE 288 80 240 80
WIRE -16 96 -16 32
WIRE 32 96 -16 96
WIRE 48 96 32 96
WIRE 32 112 32 96
WIRE 32 112 -48 112
WIRE 144 112 144 96
WIRE 240 112 240 80
WIRE 240 112 144 112
WIRE 384 112 384 80
WIRE 464 112 384 112
WIRE 288 128 256 128
WIRE 384 128 384 112
WIRE -80 144 -128 144
WIRE 48 144 -80 144
WIRE 144 144 144 112
WIRE -48 208 -48 112
WIRE 48 208 -48 208
WIRE 256 208 256 128
WIRE 272 208 256 208
WIRE 144 224 144 208
WIRE 208 224 144 224
WIRE 272 224 272 208
WIRE -80 256 -80 144
WIRE 48 256 -80 256
WIRE 144 256 144 224
FLAG -128 224 0
FLAG -112 112 0
FLAG 464 112 Out
IOPIN 464 112 Out
SYMBOL memristor 96 96 R90
SYMATTR InstName U1
SYMBOL memristor 96 144 R90
SYMATTR InstName U2
SYMBOL memristor 96 208 R270
SYMATTR InstName U3
SYMBOL memristor 96 256 R270
SYMATTR InstName U4
SYMBOL memristor 336 80 R270
SYMATTR InstName U5
SYMBOL memristor 336 128 R270
SYMATTR InstName U6
SYMBOL Digital\\inv 208 160 R0
SYMATTR InstName A1
SYMBOL voltage -112 16 R0
WINDOW 3 -91 -29 Left 2
WINDOW 123 0 0 Left 0
WINDOW 39 0 0 Left 0
SYMATTR Value PULSE(0 5 10m 1n 1n 10m 20m)
SYMATTR InstName V1
SYMBOL voltage -128 128 R0
WINDOW 3 -80 169 Left 2
SYMATTR Value PULSE(0 5 20m 1n 1n 20m 40m)
SYMATTR InstName V2
TEXT -344 336 Left 2 !.tran 100m
