Version 4
SHEET 1 880 680
WIRE 224 96 112 96
WIRE 320 160 320 96
WIRE 400 160 320 160
WIRE 224 208 112 208
WIRE 320 208 320 160
FLAG 112 176 0
FLAG 112 288 0
FLAG 400 160 Out
IOPIN 400 160 Out
SYMBOL voltage 112 80 R0
WINDOW 123 0 0 Left 0
WINDOW 39 0 0 Left 0
WINDOW 3 -150 -16 Left 2
SYMATTR Value PULSE(0 5 10m 1n 1n 10m 20m)
SYMATTR InstName V1
SYMBOL voltage 112 192 R0
WINDOW 123 0 0 Left 0
WINDOW 39 0 0 Left 0
WINDOW 3 -150 133 Left 2
SYMATTR Value PULSE(0 5 20m 1n 1n 20m 40m)
SYMATTR InstName V2
SYMBOL memristor 272 96 R270
SYMATTR InstName U1
SYMBOL memristor 272 208 R270
SYMATTR InstName U2
TEXT -80 280 Left 2 !.tran 100m
