Version 4
SHEET 1 880 680
WIRE -144 32 -208 32
WIRE -128 32 -144 32
WIRE -64 32 -128 32
WIRE -64 48 -64 32
WIRE 288 48 272 48
WIRE 304 48 288 48
WIRE 320 48 304 48
WIRE 32 64 32 48
WIRE 80 64 32 64
WIRE 416 64 416 48
WIRE 464 64 416 64
WIRE -64 80 -96 80
WIRE 32 80 32 64
WIRE 176 80 176 64
WIRE 272 80 272 48
WIRE 272 80 176 80
WIRE 416 80 416 64
WIRE 464 80 464 64
WIRE 80 96 64 96
WIRE 176 96 176 80
WIRE 560 96 560 80
WIRE 688 96 560 96
WIRE 256 112 240 112
WIRE 320 112 320 80
WIRE 320 112 256 112
WIRE 560 112 560 96
WIRE -128 128 -128 32
WIRE -64 128 -128 128
WIRE -160 144 -208 144
WIRE -96 144 -96 80
WIRE -96 144 -160 144
WIRE 32 144 32 128
WIRE 64 144 64 96
WIRE 64 144 32 144
WIRE 304 144 304 48
WIRE 320 144 304 144
WIRE -96 160 -96 144
WIRE -64 160 -96 160
WIRE 32 160 32 144
WIRE 416 160 416 144
WIRE 464 160 464 112
WIRE 464 160 416 160
WIRE 256 176 256 112
WIRE 320 176 256 176
WIRE 416 176 416 160
WIRE 240 192 240 112
WIRE 240 192 -128 192
WIRE -144 240 -144 32
WIRE -64 240 -144 240
WIRE 288 240 288 48
WIRE 320 240 288 240
WIRE 464 240 448 240
WIRE -128 256 -128 192
WIRE -128 256 -208 256
WIRE 32 256 32 240
WIRE 80 256 32 256
WIRE 416 256 416 240
WIRE 448 256 448 240
WIRE 448 256 416 256
WIRE 560 256 560 240
WIRE 640 256 560 256
WIRE -160 272 -160 144
WIRE -64 272 -160 272
WIRE 32 272 32 256
WIRE 560 272 560 256
WIRE 240 288 240 192
WIRE 320 288 240 288
WIRE 416 288 416 256
WIRE 80 336 80 256
WIRE 464 336 464 272
WIRE 464 336 80 336
FLAG 688 96 Sum
IOPIN 688 96 Out
FLAG -208 112 0
FLAG -208 224 0
FLAG -208 336 0
FLAG 640 256 Carry_Out
IOPIN 640 256 Out
SYMBOL memristor -16 48 R90
SYMATTR InstName U1
SYMBOL memristor -16 80 R90
SYMATTR InstName U2
SYMBOL memristor -16 128 R270
SYMATTR InstName U3
SYMBOL memristor -16 160 R270
SYMATTR InstName U4
SYMBOL memristor 128 64 R270
SYMATTR InstName U5
SYMBOL memristor 128 96 R270
SYMATTR InstName U6
SYMBOL memristor 368 48 R90
SYMATTR InstName U7
SYMBOL memristor 368 80 R90
SYMATTR InstName U8
SYMBOL memristor 368 144 R270
SYMATTR InstName U9
SYMBOL memristor 368 176 R270
SYMATTR InstName U10
SYMBOL memristor 512 80 R270
SYMATTR InstName U11
SYMBOL memristor 512 112 R270
SYMATTR InstName U12
SYMBOL memristor -16 240 R270
SYMATTR InstName U13
SYMBOL memristor -16 272 R270
SYMATTR InstName U14
SYMBOL memristor 368 240 R270
SYMATTR InstName U15
SYMBOL memristor 368 288 R270
SYMATTR InstName U16
SYMBOL memristor 512 240 R90
SYMATTR InstName U17
SYMBOL memristor 512 272 R90
SYMATTR InstName U18
SYMBOL voltage -208 16 R0
WINDOW 3 -56 -23 Left 2
WINDOW 123 0 0 Left 0
WINDOW 39 0 0 Left 0
SYMATTR Value PULSE(0 5 10m 1n 1n 10m 20m)
SYMATTR InstName A
SYMBOL voltage -208 128 R0
WINDOW 3 -403 15 Left 2
SYMATTR Value PULSE(0 5 20m 1n 1n 20m 40m)
SYMATTR InstName B
SYMBOL voltage -208 240 R0
WINDOW 3 -67 136 Left 2
SYMATTR Value PULSE(0 5 40m 1n 1n 40m 80m)
SYMATTR InstName Cin
TEXT -616 400 Left 2 !.tran 100m
