Version 4
SHEET 1 1260 680
WIRE 1136 -784 720 -784
WIRE 1216 -704 896 -704
WIRE 256 -688 48 -688
WIRE 544 -688 256 -688
WIRE 720 -688 720 -784
WIRE 720 -688 640 -688
WIRE 800 -688 720 -688
WIRE 896 -688 896 -704
WIRE 320 -592 128 -592
WIRE -512 -560 -832 -560
WIRE -832 -544 -832 -560
WIRE 800 -544 496 -544
WIRE -128 -528 -368 -528
WIRE -128 -512 -128 -528
WIRE -48 -512 -128 -512
WIRE 48 -512 48 -688
WIRE 256 -512 256 -688
WIRE 896 -496 896 -544
WIRE 960 -496 896 -496
WIRE 48 -464 48 -512
WIRE 144 -464 48 -464
WIRE 800 -464 736 -464
WIRE 896 -464 896 -496
WIRE -512 -432 -512 -560
WIRE -368 -432 -368 -528
WIRE -368 -432 -416 -432
WIRE -304 -432 -368 -432
WIRE 320 -432 320 -592
WIRE 496 -432 496 -544
WIRE 496 -432 416 -432
WIRE 592 -432 496 -432
WIRE -48 -416 -160 -416
WIRE 48 -416 48 -464
WIRE -336 -384 -432 -384
WIRE -224 -384 -336 -384
WIRE 544 -384 400 -384
WIRE 672 -384 544 -384
WIRE 256 -368 256 -416
WIRE 256 -368 -144 -368
WIRE 960 -368 960 -496
WIRE 960 -368 896 -368
WIRE 448 -352 192 -352
WIRE 544 -352 544 -384
WIRE 544 -352 448 -352
WIRE -336 -336 -336 -384
WIRE -336 -336 -944 -336
WIRE -144 -336 -144 -368
WIRE -144 -336 -336 -336
WIRE 144 -320 144 -464
WIRE 144 -320 48 -320
WIRE 448 -304 448 -352
WIRE 752 -304 448 -304
WIRE 800 -304 800 -368
WIRE 1040 -304 800 -304
WIRE -48 -272 -48 -320
WIRE 192 -272 192 -352
WIRE 192 -272 -48 -272
WIRE 800 -256 800 -304
WIRE 976 -256 896 -256
WIRE -512 -224 -512 -432
WIRE -368 -224 -416 -224
WIRE -320 -224 -368 -224
WIRE -208 -224 -208 -432
WIRE -208 -224 -224 -224
WIRE -48 -224 -48 -272
WIRE 144 -224 48 -224
WIRE 320 -224 320 -432
WIRE 480 -224 416 -224
WIRE 592 -224 480 -224
WIRE 688 -224 688 -432
WIRE 720 -224 688 -224
WIRE -640 -192 -944 -192
WIRE 752 -192 752 -304
WIRE 1088 -192 752 -192
WIRE -336 -176 -432 -176
WIRE -240 -176 -336 -176
WIRE 544 -176 400 -176
WIRE 672 -176 544 -176
WIRE -144 -144 -144 -336
WIRE -48 -144 -144 -144
WIRE 752 -144 752 -192
WIRE 800 -144 752 -144
WIRE -640 -128 -640 -192
WIRE -336 -128 -336 -176
WIRE -336 -128 -640 -128
WIRE -160 -128 -160 -416
WIRE -160 -128 -336 -128
WIRE 48 -96 48 -144
WIRE 144 -96 144 -224
WIRE 144 -96 48 -96
WIRE 896 -96 896 -144
WIRE 976 -96 976 -256
WIRE 976 -96 896 -96
WIRE -48 -64 -96 -64
WIRE 48 -64 48 -96
WIRE 800 -64 752 -64
WIRE 896 -64 896 -96
WIRE -368 -48 -368 -224
WIRE -96 -48 -96 -64
WIRE -96 -48 -368 -48
WIRE 480 -48 480 -224
WIRE 752 -48 752 -64
WIRE 752 -48 480 -48
WIRE -224 -16 -224 -224
WIRE -192 -16 -224 -16
WIRE 720 -16 720 -224
WIRE -192 16 -192 -16
WIRE 544 96 544 -176
WIRE 736 96 736 -464
WIRE 736 96 544 96
WIRE 800 128 784 128
WIRE 848 128 800 128
WIRE 1088 128 1088 -192
WIRE 1088 128 944 128
WIRE 544 144 544 96
WIRE 544 144 -944 144
WIRE 688 144 544 144
WIRE 784 144 784 128
WIRE 800 320 800 128
WIRE 1216 320 1216 -704
WIRE 1216 320 800 320
FLAG -944 -256 0
FLAG -944 -112 0
FLAG -832 -464 0
FLAG -192 16 0
FLAG -944 224 0
FLAG 720 -16 0
FLAG 1040 -304 Sum
IOPIN 1040 -304 Out
FLAG 128 -512 0
FLAG 1136 -784 Carry
IOPIN 1136 -784 Out
SYMBOL voltage -944 -352 R0
WINDOW 3 -52 -17 Left 2
WINDOW 123 0 0 Left 0
WINDOW 39 0 0 Left 0
SYMATTR Value PULSE(0 5 10m 1n 1n 10m 20m)
SYMATTR InstName V1
SYMBOL voltage -944 -208 R0
WINDOW 3 -53 140 Left 2
SYMATTR Value PULSE(0 5 20m 1n 1n 20m 40m)
SYMATTR InstName V2
SYMBOL pmos -512 -384 R270
SYMATTR InstName M1
SYMBOL pmos -512 -176 R270
SYMATTR InstName M2
SYMBOL nmos -304 -384 R270
SYMATTR InstName M3
SYMBOL nmos -320 -176 R270
SYMATTR InstName M4
SYMBOL voltage -832 -560 R0
WINDOW 123 0 0 Left 0
WINDOW 39 0 0 Left 0
SYMATTR InstName V3
SYMATTR Value 5
SYMBOL memristor 0 -512 R270
SYMATTR InstName U1
SYMBOL memristor 0 -416 R270
SYMATTR InstName U2
SYMBOL memristor 0 -320 R270
SYMATTR InstName U3
SYMBOL memristor 0 -224 R270
SYMATTR InstName U4
SYMBOL memristor 0 -144 R270
SYMATTR InstName U5
SYMBOL memristor 0 -64 R270
SYMATTR InstName U6
SYMBOL voltage -944 128 R0
WINDOW 3 -57 -15 Left 2
WINDOW 123 0 0 Left 0
WINDOW 39 0 0 Left 0
SYMATTR InstName V4
SYMATTR Value PULSE(0 5 10m 1n 1n 10m 20m)
SYMBOL pmos 320 -384 R270
SYMATTR InstName M5
SYMBOL pmos 320 -176 R270
SYMATTR InstName M6
SYMBOL nmos 592 -384 R270
SYMATTR InstName M7
SYMBOL nmos 592 -176 R270
SYMATTR InstName M8
SYMBOL voltage 128 -608 R0
WINDOW 123 0 0 Left 0
WINDOW 39 0 0 Left 0
SYMATTR InstName V5
SYMATTR Value 5
SYMBOL memristor 848 -544 R270
SYMATTR InstName U7
SYMBOL memristor 848 -464 R270
SYMATTR InstName U8
SYMBOL memristor 848 -368 R270
SYMATTR InstName U9
SYMBOL memristor 848 -256 R270
SYMATTR InstName U10
SYMBOL memristor 848 -144 R270
SYMATTR InstName U11
SYMBOL memristor 848 -64 R270
SYMATTR InstName U12
SYMBOL memristor 256 -464 R180
SYMATTR InstName U13
SYMBOL memristor 592 -688 R270
SYMATTR InstName U14
SYMBOL memristor 736 144 R270
SYMATTR InstName U15
SYMBOL memristor 896 128 R270
SYMATTR InstName U16
SYMBOL memristor 848 -688 R270
SYMATTR InstName U17
TEXT -1002 248 Left 2 !.tran 40m
