Version 4
SHEET 1 880 680
WIRE -48 96 -96 96
WIRE -32 96 -48 96
WIRE 64 96 -32 96
WIRE -96 112 -96 96
WIRE 160 112 160 96
WIRE 272 112 160 112
WIRE 64 128 0 128
WIRE 160 128 160 112
WIRE 368 144 368 112
WIRE 432 144 368 144
WIRE 272 160 240 160
WIRE 368 160 368 144
WIRE -32 176 -32 96
WIRE 64 176 -32 176
WIRE 160 192 160 176
WIRE 240 192 240 160
WIRE 240 192 160 192
WIRE 0 208 0 128
WIRE 64 208 0 208
WIRE 160 208 160 192
WIRE -32 224 -96 224
WIRE 0 224 0 208
WIRE 0 224 -32 224
WIRE -48 272 -48 96
WIRE 64 272 -48 272
WIRE 160 288 160 272
WIRE 224 288 160 288
WIRE -32 304 -32 224
WIRE 64 304 -32 304
WIRE 160 304 160 288
FLAG 224 288 Carry
IOPIN 224 288 Out
FLAG -96 192 0
FLAG -96 304 0
FLAG 432 144 Sum
IOPIN 432 144 Out
SYMBOL memristor 112 96 R90
SYMATTR InstName U1
SYMBOL memristor 112 128 R90
SYMATTR InstName U2
SYMBOL memristor 112 176 R270
SYMATTR InstName U3
SYMBOL memristor 112 208 R270
SYMATTR InstName U4
SYMBOL memristor 320 112 R270
SYMATTR InstName U5
SYMBOL memristor 320 160 R270
SYMATTR InstName U6
SYMBOL memristor 112 272 R270
SYMATTR InstName U7
SYMBOL memristor 112 304 R270
SYMATTR InstName U8
SYMBOL voltage -96 96 R0
WINDOW 3 -115 -43 Left 2
WINDOW 123 0 0 Left 0
WINDOW 39 0 0 Left 0
SYMATTR Value PULSE(0 5 10m 1n 1n 10m 20m)
SYMATTR InstName V1
SYMBOL voltage -96 208 R0
WINDOW 3 -113 143 Left 2
SYMATTR Value PULSE(0 5 20m 1n 1n 20m 40m)
SYMATTR InstName V2
TEXT 560 336 Left 2 !.tran 500m
